%NProcShared=2
#n B3LYP/6-31G(d) Opt=(TS, ModRedun)

 methane_abs

0 1
C         -0.86779        0.27474        0.17640
H         -1.13598        0.34517        1.24102
H          0.22670        0.32888        0.06864
H         -1.33366        1.10581       -0.37390
H         -1.23070       -0.68140       -0.22943
O          1.15056        0.38253       -0.15164
O          1.74957       -0.97141       -0.14051
H          2.45393       -1.01722       -0.77715

2 6 F