#m062x/6-311+g(2df,2p) Opt=(ts,calcfc,noeigentest,ModRedun,maxcycle=1000) freq

 Title

0 1
O          0.26715        0.78616       -0.00679
O          1.10537       -0.44176        0.00613
H         -0.63824        0.38822        0.05149
H          0.31743       -1.03916       -0.04147
O         -1.33243       -0.26304       -0.00060

