#m062x/6-311+g(2df,2p) freq Opt=(TS, ModRedun)

 Title

0 2
C         -9.23764        1.30868        0.38027
C         -8.37464        1.26011        1.60997
C         -6.95560        1.59638        1.24444
C         -6.30931        2.63507        1.79276
C        -10.28946        2.12734        0.28326
O         -5.03346        2.92097        1.45204
H        -10.56159        2.79444        1.09549
H        -10.88951        2.13343       -0.62089
H         -8.99902        0.65622       -0.45502
H         -8.75831        1.95729        2.38830
H         -8.40354        0.23249        2.02879
H         -6.44751        0.97211        0.51408
H         -6.80479        3.26698        2.52327
H         -4.47773        2.34030        0.74281
O         -3.67972        2.37415       -0.00592
O         -2.97157        1.28254        0.19954
H         -2.20485        1.58058        0.75233

