#n B3LYP/6-31G(d) Opt

 Title

0 2
C         -9.58021        1.34459        0.60184
C         -8.44783        1.19635        1.57652
C         -7.13545        1.00819        0.85764
C         -6.03185        1.77239        0.87486
C        -10.33450        2.44494        0.48087
O         -5.05758        2.67969        1.04673
H        -10.16253        3.32637        1.09094
H        -11.14309        2.48669       -0.24266
H         -9.79793        0.48855       -0.03390
H         -8.41713        2.04998        2.26401
H         -8.63395        0.31123        2.19643
H         -7.08292        0.10861        0.24450
H         -6.51345        2.51667        1.57342
H         -4.29094        2.42788        0.48774
O         -3.43792        2.92210        0.55705
O         -2.27941        2.03782        0.72083
H         -2.05159        2.31705        1.62870

6 14 F