#m062x/6-311+g(2df,2p) freq Opt=(TS, ModRedun)

 Title

0 1
C        -30.45023      -13.90607       -4.85809
C        -30.39124      -13.82307       -3.52158
H        -29.53701      -14.00235       -5.43679
H        -31.38742      -13.92075       -5.41841
O        -31.43975      -13.73758       -2.63964
H        -29.45795      -13.87518       -2.97390
O        -32.50195      -12.98725       -3.28889
H        -32.32554      -12.14669       -2.82753
O        -32.14106      -13.75216       -6.01957
O        -33.35431      -14.42356       -5.55658
H        -33.42619      -13.93709       -4.70916

