#m062x/6-311+g(2df,2p) Opt=(ModRedun,Loose,maxcycle=1000) Int(Grid=SG1) freq

 Title

0 1
O          1.45958       11.42397       -0.44334
O          0.26879       10.53378       -0.43201
H          1.33094       11.90968        0.41049
H         -0.10398       10.96132        0.37933
O          0.89226       12.26236        1.17986

