#m062x/6-311+g(2df,2p) freq Opt=(TS, ModRedun)

 Title

0 2
C        -29.61330      -16.74231       -3.21388
C        -28.54285      -15.97025       -3.39278
H        -30.03693      -16.86370       -2.22168
H        -30.11618      -17.30668       -4.14074
O        -28.01745      -15.82022       -4.62643
H        -28.09570      -15.46305       -2.54218
O        -26.97771      -15.07396       -4.81401
H        -26.23371      -15.71144       -4.96329
O        -30.77704      -18.00665       -4.66306
O        -30.57085      -17.78259       -5.94484
H        -31.30534      -17.17482       -6.21542

