#m062x/6-311+g(2df,2p) freq Opt=(TS, ModRedun)
 Title

0 2
O          0.98312       12.84248       -0.57519
O          2.20405       13.29984       -0.38807
H          0.40366       13.71074       -0.90036
H          2.26575       13.46098        0.58781
O         -0.62753       13.95051       -1.16993

