#n B3LYP/6-31G(d) freq Opt=(TS, ModRedun)

 Title

0 2
C        -30.95690      -13.87996       -3.61992
C        -31.43509      -14.14377       -2.38918
H        -29.91561      -13.92334       -3.93871
H        -31.63877      -13.70168       -4.46492
O        -32.79282      -14.21020       -2.09317
H        -30.38317      -14.33655       -2.10742
O        -34.23549      -14.11562       -2.51871
H        -34.22394      -14.51063       -3.52286
O        -32.55801      -13.69882       -5.08436
O        -33.08094      -14.92628       -4.45651
H        -33.09306      -14.54046       -3.39369

