#m062x/6-311+g(2df,2p) freq Opt=(TS, ModRedun)
 Title

0 2
C        -33.06149       -5.85765       -0.07568
C        -31.58885       -6.17385        0.17151
H        -33.44238       -4.97247        0.67715
H        -33.67097       -6.76960        0.10254
H        -33.21316       -5.53130       -1.12698
C        -30.71166       -4.93509       -0.06802
H        -31.29658       -6.99699       -0.51219
H        -31.46991       -6.51620        1.22223
C        -29.21384       -5.17317        0.23425
H        -31.07428       -4.12756        0.60558
H        -30.83262       -4.59090       -1.11925
C        -28.58997       -6.23509       -0.68520
H        -29.07229       -7.22299       -0.54508
H        -27.51322       -6.36265       -0.44289
H        -28.68197       -5.93398       -1.75087
C        -28.44337       -3.85418        0.08558
H        -28.85481       -3.08748        0.77641
H        -28.51451       -3.47154       -0.95555
H        -27.37186       -4.00295        0.33894
H        -29.10904       -5.51142        1.28903
O        -34.04387       -4.44931        1.42935
O        -33.72513       -3.17752        1.30157
H        -33.05075       -3.01491        2.00925

