#m062x/6-311+g(2df,2p) Opt=(ModRedun,Loose,maxcycle=1000) Int(Grid=SG1) freq

 Title

0 2
C         -0.82197        1.38890        0.10524
C         -2.00015        0.78045       -0.00987
H         -0.78914        2.47126        0.14397
H          0.10547        0.83354        0.16674
O         -2.25649       -0.56426       -0.10104
H         -2.95660        1.29419       -0.07484
O         -1.05013       -1.33796        0.07296
H         -0.62396       -1.23600       -0.80161
O          2.27962       -0.46742        0.30995
O          3.17184        0.31444       -0.29487
H          4.03825        0.06258        0.09756

