#m062x/6-311+g(2df,2p) Opt=(TS,EstmFC,noeigentest,ModRedundant,maxcycles=200) Test

 Title

0 2
O          1.45958       11.42397       -0.44334
O          0.26879       10.53377       -0.43201
H          1.33094       11.90968        0.41049
H         -0.10398       10.96132        0.37932
O          0.89226       12.26236        1.17986

