#m062x/6-311+g(2df,2p) Opt=(TS,ModRedun)

 Title

0 2
C         -8.41665        0.16013       -0.47186
C         -7.38203        1.10578       -0.42267
C         -8.12444       -1.19948       -0.28314
C         -6.81104       -1.61458       -0.04711
H         -8.91276       -1.94111       -0.31928
C         -6.06020        0.69926       -0.18624
H         -7.61008        2.15571       -0.56969
C         -5.77185       -0.67431        0.00321
H         -6.60825       -2.66941        0.09532
C         -5.01976        1.64026       -0.13595
C         -3.70675        1.22264        0.09980
H         -5.22117        2.69532       -0.27851
C         -3.42240       -0.13278        0.28648
H         -2.90744        1.95147        0.13780
C         -4.44908       -1.08026        0.23895
H         -4.20985       -2.12678        0.38584
H         -2.40365       -0.44986        0.46845
C         -9.82287        0.61508       -0.72988
H         -9.87511        1.17587       -1.81472
H        -10.13869        1.32151        0.06712
H        -10.53301       -0.23930       -0.74272
O         -9.96507        1.85867       -2.66767
O         -9.25932        1.30185       -3.63110
H         -8.36776        1.73059       -3.57083

