#m062x/6-311+g(2df,2p) Opt=(ModRedun,Loose,maxcycle=1000) Integral=NoXCTest Int(Grid=SG1) freq

 Title

0 2
C         -2.71737        4.21001        6.68819
C         -1.89823        3.36544        5.94810
C         -3.18038        5.39046        6.11979
H         -2.99453        3.94820        7.70636
C         -2.82726        5.72849        4.81516
H         -3.82149        6.05319        6.69594
C         -1.54050        3.69805        4.64008
H         -1.53901        2.44262        6.39803
C         -2.00019        4.88955        4.04807
H         -3.21884        6.66068        4.42682
C         -0.71866        2.82592        3.93011
C         -1.61815        5.19323        2.72143
C         -0.34405        3.12448        2.62784
H         -0.36534        1.90574        4.38988
C         -0.78728        4.29825        2.02269
H          0.29752        2.43376        2.08542
C         -0.39133        4.56517        0.71083
C         -2.03374        6.35836        2.05536
C         -1.63512        6.61877        0.74644
H         -2.67583        7.09187        2.52733
C         -0.81053        5.72670        0.06717
H         -1.97640        7.52693        0.25465
H          0.24816        3.85993        0.18409
C         -0.38808        6.01298       -1.36402
H          0.52587        5.46990       -1.61702
H         -0.19308        7.07946       -1.50048
O         -1.88294        5.36860       -2.83456
O         -2.83331        4.48021       -3.51972
H         -2.21282        4.00211       -4.09977
H         -1.17453        5.71275       -2.06312

