#m062x/6-311+g(2df,2p) Opt=(TS, ModRedun)

 Title

0 2
C          8.02001       -2.79983       -0.07918
C          6.57127       -2.39598       -0.02700
H          8.53393       -2.41335        0.80997
H          8.48122       -2.34978       -0.96872
H          8.17421       -3.89799       -0.11976
C          5.54491       -3.34287        0.01135
C          6.23154       -1.04508       -0.01871
C          4.19035       -2.95762        0.03875
H          5.79990       -4.40135        0.01585
C          4.88969       -0.65127        0.01166
H          7.00749       -0.28279       -0.03982
C          3.82710       -1.58641        0.03409
H          4.69158        0.41671        0.01374
C          3.19515       -3.93827        0.06572
C          2.43151       -1.22488        0.04844
C          1.84678       -3.59043        0.08029
H          3.45907       -4.99376        0.07271
C          1.45198       -2.25010        0.06922
H          1.10388       -4.38499        0.09792
C          0.08258       -1.93203        0.07679
C          1.95192        0.11041        0.03832
C          0.58701        0.41437        0.04524
H          2.64190        0.94895        0.02236
C         -0.34847       -0.60817        0.06388
H          0.26220        1.45155        0.03495
H         -0.66573       -2.72186        0.09113
H         -1.41057       -0.37938        0.06808
O          8.71909       -4.68621       -0.33375
O          8.61912       -5.70535        0.69763
H          8.34730       -6.43055        0.10685

