#m062x/6-311+g(2df,2p) Opt=(ModRedun,Loose,maxcycle=1000) Int(Grid=SG1) freq

 Title

0 2
C        -24.82878       17.05637        2.10574
C        -24.08900       16.82799        0.94989
C        -24.31438       16.72095        3.36191
H        -25.81733       17.50040        2.01641
C        -22.82321       16.25951        1.03511
H        -24.50113       17.09383       -0.02047
C        -22.29437       15.91506        2.27854
H        -22.25183       16.08470        0.12629
C        -23.03557       16.14144        3.45084
C        -22.47478       15.77890        4.68371
C        -21.20540       15.20753        4.74495
H        -23.01316       15.93214        5.61453
C        -21.02281       15.34257        2.34727
C        -20.47888       14.98969        3.57857
H        -20.44949       15.16810        1.43961
H        -20.78141       14.93062        5.70707
H        -19.48855       14.54371        3.62874
C        -25.16236       16.99477        4.60044
H        -26.10422       17.49425        4.35128
H        -24.61960       17.63756        5.29809
H        -25.40265       16.05757        5.10874
O        -27.08108       18.00517        4.39844
O        -28.23754       18.49897        3.63624
H        -27.93971       19.41231        3.47001

19 22 F
18 19 F

