#m062x/6-311+g(2df,2p) Opt=(ModRedun,Loose,maxcycle=1000) Int(Grid=SG1) freq

 Title

0 2
C        -24.80971       17.02119        2.04174
C        -24.04774       16.79528        0.89990
C        -24.31453       16.69437        3.30788
H        -25.80055       17.45615        1.93384
C        -22.77856       16.23873        1.00934
H        -24.44528       17.05376       -0.07853
C        -22.26841       15.90345        2.26314
H        -22.18976       16.06586        0.11133
C        -23.03248       16.12648        3.42135
C        -22.49050       15.77200        4.66505
C        -21.21697       15.21314        4.75051
H        -23.04713       15.92193        5.58559
C        -20.99295       15.34339        2.35610
C        -20.46752       14.99938        3.59796
H        -20.40192       15.17177        1.45931
H        -20.80757       14.94276        5.72081
H        -19.47395       14.56330        3.66703
C        -25.18798       16.96373        4.52950
H        -26.12221       17.46854        4.26251
H        -24.65907       17.60055        5.24298
H        -25.44191       16.02387        5.02633
O        -27.12757       17.92216        4.29618
O        -28.34681       18.47808        3.69072
H        -28.09832       19.42054        3.66942

