#m062x/6-311+g(2df,2p) Opt=(ModRedun,Loose,maxcycle=1000) Int(Grid=SG1) freq

 Title

0 2
C         -8.75776        1.77117        3.20858
C         -8.72110        0.64656        2.38819
C         -7.57872        2.44598        3.51849
H         -9.70631        2.12027        3.60951
C         -7.50652        0.20312        1.86906
H         -9.63981        0.11604        2.15010
C         -6.32106        0.87436        2.17727
H         -7.48977       -0.67282        1.22445
C         -6.35707        1.99615        3.01403
H         -7.61460        3.32165        4.16209
C         -5.10161        2.70602        3.36815
C         -5.11827        0.42406        1.63088
C         -3.89994        1.03377        1.91938
H         -5.12488       -0.42738        0.95413
C         -3.75740        2.16895        2.92304
H         -2.98752        0.64540        1.47269
H         -5.10158        3.58056        4.01536
H         -3.25506        1.75724        3.80177
C         -2.86728        3.30137        2.36932
H         -1.97518        2.88584        1.89264
H         -2.54262        3.97204        3.17349
H         -3.40867        3.88858        1.62349
O         -1.88998        4.51508        3.87868
O         -0.77789        4.82259        4.79143
H         -0.15262        5.21695        4.15562
21 23 F
