#m062x/6-311+g(2df,2p) Opt=(TS, ModRedun)

 Title

0 2
C         -7.92292       -1.13132       -0.00034
C         -7.19941       -2.31366        0.00788
C         -5.80140       -2.27620        0.01018
C         -5.07638       -1.05692        0.00374
C         -7.24765        0.08606       -0.00697
C         -5.84309        0.13652       -0.00572
H         -7.83110        1.00446       -0.01330
H         -9.00914       -1.15289       -0.00179
H         -7.71641       -3.26966        0.01274
H         -5.28343       -3.23065        0.01719
C         -5.20167        1.37765       -0.01381
C         -3.63731       -0.96833        0.00753
C         -3.81248        1.46212       -0.01304
H         -5.77910        2.29945       -0.02048
C         -3.02329        0.30967       -0.00115
H         -3.35079        2.44763       -0.01888
C         -1.62214        0.43324        0.00505
C         -2.76763       -2.08666        0.01962
C         -0.78905       -0.68827        0.03482
H         -1.17392        1.42646       -0.00822
C         -1.37437       -1.95195        0.03159
H         -3.16387       -3.09813        0.02195
H         -0.75514       -2.84614        0.04111
C          0.70945       -0.54698        0.04284
H          1.05444        0.49110        0.22964
H          1.10917       -0.87298       -0.92469
H          1.13215       -1.18981        0.82584
O          1.47969        1.28814        0.61403
O          1.90873        2.21854       -0.41752
H          2.83124        2.29775       -0.11406

