#m062x/6-311+g(2df,2p) Opt=(ModRedun,Loose,maxcycle=1000) Int(Grid=SG1) freq

 Title

0 2
C         -0.50670       15.30637        0.76678
C          0.85667       15.22991        0.49509
C          1.43713       14.00191        0.18768
C          0.65522       12.84570        0.15021
C         -1.29263       14.15626        0.73135
C         -0.72034       12.91630        0.42234
H         -2.35443       14.23919        0.94914
H         -0.95943       16.26502        1.00797
H          1.46806       16.12859        0.52363
H          2.50304       13.95122       -0.02270
C         -1.49250       11.74628        0.37937
C          1.24530       11.61924       -0.15897
C          0.47188       10.46224       -0.19950
H          2.31063       11.55973       -0.37023
C         -0.89291       10.52645        0.06828
H          0.93333        9.50812       -0.44139
H         -1.49126        9.61925        0.03246
O         -2.83663       11.77060        0.63087
H         -3.90419       11.54836        0.79474
O         -4.35945       12.34295        0.18119
O         -4.87049       13.11999       -0.95864
H         -4.03303       13.54999       -1.21120

