#m062x/6-311+g(2df,2p) Opt=(ModRedun,Loose,maxcycle=1000) Int(Grid=SG1) freq

Title

0 1
C         -9.10581        2.56702        3.64917
C         -9.40931        1.54366        2.75468
C         -7.78088        2.95214        3.84198
H         -9.90325        3.07255        4.18832
C         -8.38700        0.89946        2.06103
H        -10.44355        1.24756        2.59741
C         -7.05621        1.26818        2.26461
H         -8.63142        0.09906        1.36664
C         -6.75346        2.30624        3.15193
H         -7.55257        3.76712        4.52489
C         -5.31917        2.78395        3.30169
C         -5.97548        0.55650        1.52916
C         -4.70729        0.79113        1.84859
H         -6.22571       -0.16957        0.75916
C         -4.25592        1.71821        2.96358
H         -3.91998        0.25566        1.32272
H         -5.13932        3.20768        4.29317
H         -4.07890        1.11301        3.85625
C         -2.93178        2.41462        2.59151
H         -2.15015        1.67291        2.40769
H         -2.59703        3.07264        3.39969
H         -3.05606        3.01326        1.68517
O         -2.02185        3.78700        4.01154
O         -0.83529        4.34245        4.67873
H         -0.51078        4.92336        3.96613

19 21 F
21 23 F

