#m062x/6-311+g(2df,2p) Opt=(TS, ModRedun)

 Title

0 2
C          2.33029        8.94531        5.53815
C          2.85086        7.69227        5.85625
C          1.51981        9.09677        4.41777
H          2.55496        9.80241        6.16158
C          1.21922        7.99749        3.60880
H          1.11875       10.07349        4.17498
C          2.56112        6.57310        5.05338
H          3.47904        7.59962        6.73456
C          1.72976        6.70668        3.90695
H          0.58416        8.19488        2.76195
C          3.09282        5.32445        5.39358
C          1.43901        5.54600        3.11903
C          2.81578        4.19678        4.62110
H          3.72558        5.22117        6.26816
C          1.99190        4.28614        3.48840
H          3.24323        3.24768        4.92149
C          1.70392        3.12582        2.72835
C          0.60613        5.59079        1.98212
C          0.31250        4.44325        1.25193
H          0.14896        6.49889        1.63125
C          0.83825        3.19302        1.59472
H         -0.34454        4.53149        0.39553
H          2.12569        2.16953        3.02040
C          0.38955        2.02454        0.69061
H          0.57765        2.37740       -0.34830
H          0.06726        1.71044        1.70901
H          1.49547        1.92461        0.59711
O         -0.14319        0.98504       -0.10299
O          0.39155       -0.15615        0.29260
H          0.06130       -0.81619       -0.37156

