#n B3LYP/6-31G(d) Opt=(ModRedun)

 Title

0 2
C         -4.96820       -0.26299       -0.40173
C         -3.65716        0.15396       -0.15766
C         -5.34028       -1.58132       -0.14703
H         -5.69820        0.44181       -0.79119
C         -2.70395       -0.74431        0.33940
H         -3.38445        1.18545       -0.36923
C         -4.40375       -2.48235        0.35484
C         -3.09378       -2.06472        0.60293
H         -6.36013       -1.90587       -0.33668
H         -4.69285       -3.50996        0.55945
H         -2.38496       -2.77976        1.01365
C         -1.33945       -0.26169        0.62664
C         -0.25021       -0.98627        0.30628
H         -1.26540        0.72755        1.11013
C          1.12489       -0.54982        0.57800
H         -0.34088       -1.95999       -0.16895
C          2.02539       -1.45583        1.15177
C          3.34538       -1.07727        1.40886
H          1.70281       -2.46024        1.41564
C          1.57559        0.73190        0.23925
C          3.77914        0.20621        1.08278
H          4.03335       -1.78386        1.86540
C          2.89570        1.10967        0.49549
H          4.80509        0.50229        1.28462
H          0.90391        1.44968       -0.22661
H          3.23129        2.11023        0.23598
O         -1.22381        1.45788        1.76837
O         -1.45255        2.76352        1.15927
H         -2.24311        2.98533        1.68334

26 27 F