#m062x/6-311+g(2df,2p) freq Opt=(TS, ModRedun)
 Title

0 2
C         -9.28042        0.40335       -0.46134
C         -8.64239       -0.74684       -0.00813
C         -8.56416        1.59082       -0.57411
H        -10.33266        0.37302       -0.73104
C         -7.20867        1.62980       -0.23098
C         -6.54221        0.48649        0.24831
C         -7.28934       -0.70549        0.34100
H         -9.19492       -1.67903        0.07450
H         -9.05658        2.49030       -0.93473
H         -6.67653        2.57023       -0.35315
H         -6.82061       -1.62395        0.68912
C         -5.03835        0.52304        0.61469
C         -4.47897        1.79097        0.97533
C         -4.22020       -0.25028       -0.28112
H         -5.11901       -0.09888        1.59870
C         -3.18810        2.17838        0.60672
H         -5.05574        2.46498        1.60917
C         -2.92997        0.14334       -0.65346
H         -4.60333       -1.19271       -0.67494
C         -2.41340        1.35116       -0.19701
H         -1.41358        1.66389       -0.48330
H         -2.33811       -0.49099       -1.30849
O         -4.95436       -0.67504        2.39238
O         -4.85182        0.08980        3.63102
H         -3.88091        0.17366        3.62306

