#m062x/6-311+g(2df,2p) Opt=(ModRedun,Loose,maxcycle=1000) Int(Grid=SG1) freq

 Title

0 2
C         -7.64787        0.01584       -1.48222
C         -6.57528        0.90813       -1.34815
C         -7.61887       -1.19120       -0.77799
C         -6.52408       -1.51418        0.02735
H         -8.44770       -1.89169       -0.85091
C         -5.46678        0.59714       -0.54199
H         -6.59999        1.85757       -1.88147
C         -5.44038       -0.63200        0.15421
H         -6.52483       -2.46275        0.55937
C         -4.38420        1.48238       -0.41216
C         -3.29008        1.15950        0.39226
H         -4.38657        2.43286       -0.94114
C         -3.26409       -0.05160        1.07735
H         -2.45923        1.85422        0.48210
C         -4.33238       -0.94227        0.95974
H         -4.29453       -1.88372        1.50283
H         -2.41280       -0.30457        1.70367
C         -8.84448        0.37866       -2.31969
H         -8.59021        1.06362       -3.15363
H         -9.59532        0.86116       -1.68264
H         -9.29085       -0.52697       -2.75013
O         -8.61066        1.54119       -4.01049
O         -8.37522        2.96631       -3.83484
H         -9.26553        3.25787       -4.10170

18 19 F
19 22 F


