#m062x/6-311+g(2df,2p) freq Opt=(TS, ModRedun)
 Title

0 2
C          7.62382       -2.41840        0.22174
C          6.17770       -2.01800        0.20794
H          8.13412       -1.93263        1.08108
H          8.10891       -2.08594       -0.72066
H          7.76542       -3.63024        0.31655
C          5.16508       -2.97831        0.30349
C          5.83495       -0.66823        0.09828
C          3.81364       -2.59638        0.28975
H          5.42800       -4.02619        0.38908
C          4.49612       -0.27184        0.08308
H          6.61086        0.08433        0.02371
C          3.45292       -1.22398        0.17820
H          4.31331        0.78603       -0.00415
C          2.82457       -3.58136        0.38708
C          2.06856       -0.86811        0.16703
C          1.47898       -3.23607        0.37632
H          3.09347       -4.62795        0.47225
C          1.08907       -1.89723        0.26794
H          0.73746       -4.02288        0.45338
C         -0.27876       -1.57905        0.25972
C          1.61407        0.46980        0.05959
C          0.24878        0.76551        0.05323
H          2.28440        1.30902       -0.02095
C         -0.69383       -0.25388        0.15282
H         -0.07984        1.79372       -0.02964
H         -1.02892       -2.35756        0.33619
H         -1.74985       -0.01631        0.14715
O          8.24777       -4.57694        0.58756
O          7.96110       -5.40406       -0.39700
H          7.19174       -5.93322       -0.06536

