#m062x/6-311+g(2df,2p) freq Opt=(TS, ModRedun)
 Title

0 2
C         -8.54376       -1.55171       -0.24163
C         -7.78717       -2.71984       -0.26681
C         -6.39366       -2.66210       -0.18773
C         -5.72159       -1.41916       -0.08054
C         -7.91262       -0.31456       -0.13701
C         -6.51283       -0.23506       -0.05627
H         -8.52024        0.58274       -0.11907
H         -9.62310       -1.60511       -0.30338
H         -8.28334       -3.67862       -0.34822
H         -5.87480       -3.60564       -0.21306
C         -5.90416        1.01992        0.04835
C         -4.29921       -1.30532        0.00340
C         -4.52169        1.12997        0.13010
H         -6.50187        1.92394        0.06723
C         -3.71391       -0.01220        0.10905
H         -4.08098        2.11699        0.21043
C         -2.31994        0.13255        0.19360
C         -3.43207       -2.42436       -0.01293
C         -1.48459       -0.98766        0.17540
H         -1.87869        1.12018        0.27476
C         -2.04741       -2.26312        0.07207
H         -3.78993       -3.43734       -0.08998
H         -1.41344       -3.14130        0.05733
C          0.00202       -0.80687        0.26967
H          0.27700       -0.24252        1.31812
H          0.35733       -0.19191       -0.58457
H          0.53494       -1.78154        0.24522
O          0.67601        0.41226        2.10130
O         -0.11900        0.23439        3.13683
H         -0.77802        0.97228        3.07828

