#m062x/6-311+g(2df,2p) Opt=(ModRedun,Loose,maxcycle=1000) Int(Grid=SG1) freq

 Title

0 2
C         -8.26712       -0.03599       -0.52368
C         -7.26830        0.93928       -0.53584
C         -7.93923       -1.35397       -0.19944
C         -6.62399       -1.69613        0.10847
H         -8.70838       -2.12265       -0.18457
C         -5.94949        0.60204       -0.22769
H         -7.52095        1.96743       -0.78766
C         -5.62543       -0.72186        0.09594
H         -6.38208       -2.72648        0.35884
C         -4.95140        1.57806       -0.24006
C         -3.63611        1.23616        0.06906
H         -5.19373        2.60839       -0.49038
C         -3.31399       -0.08083        0.39090
H         -2.86052        1.99803        0.05891
C         -4.30642       -1.05923        0.40450
H         -4.04621       -2.08464        0.65678
H         -2.28731       -0.34551        0.63164
C         -9.70012        0.34427       -0.85740
H   -1    -9.74465        0.90296       -1.79786
H        -10.11774        0.96728       -0.06253
H        -10.32950       -0.54316       -0.95896
O   -1     -9.98958        1.57969       -2.63349
O        -10.52323        2.59507       -3.55334
H        -11.21787        2.06625       -3.98706

