#m062x/6-311+g(2df,2p) Opt=(ModRedun,Loose,maxcycle=1000) Int(Grid=SG1) freq

Title

0 2
C         -3.44398      -11.88644       -0.34641
C         -3.71398      -11.91223       -1.71103
C         -3.00692      -10.71034        0.25941
H         -3.57472      -12.78671        0.24904
C         -2.83386       -9.54088       -0.49443
H         -2.80608      -10.72760        1.32670
C         -3.54643      -10.75953       -2.47260
H         -4.05528      -12.83106       -2.18155
C         -3.10874       -9.57756       -1.87200
H         -3.75957      -10.78742       -3.53880
C         -2.39501       -8.34078        0.09353
C         -2.94695       -8.43250       -2.65136
C         -2.23875       -7.20315       -0.70388
C         -2.51249       -7.24787       -2.06734
H         -3.15916       -8.45812       -3.71782
H         -1.90096       -6.26678       -0.26550
H         -2.38726       -6.35591       -2.67637
C         -2.08370       -8.24132        1.58321
H         -2.96949       -8.49367        2.17207
H         -1.28201       -8.93511        1.84888
H         -1.76511       -7.23310        1.86839
O         -1.47616       -6.39990        2.53173
O         -1.48979       -5.52565        3.71395
H         -0.82134       -5.98262        4.25683

