#m062x/6-311+g(2df,2p) Opt=(ModRedun,Loose,maxcycle=1000) Int(Grid=SG1) freq

 Title

0 2
C         -5.33171       -1.25923        1.77208
C         -3.96985       -1.00170        1.60667
C         -5.86173       -2.48838        1.38171
H         -5.97804       -0.50404        2.20975
C         -3.12881       -1.96497        1.03696
H         -3.57507       -0.04025        1.93026
C         -5.03116       -3.45720        0.82565
H         -6.92081       -2.69057        1.51673
C         -3.67056       -3.19877        0.65084
H         -5.44180       -4.41975        0.52957
H         -3.03844       -3.97018        0.21910
C         -1.64723       -1.69106        0.86319
C         -1.40192       -0.57128       -0.16013
C          0.06372       -0.33568       -0.44040
H         -1.84809        0.36113        0.20816
H         -1.90341       -0.79836       -1.10974
O         -0.69983       -1.12191        2.63809
O         -0.39942       -2.40985        3.26320
C          0.63525        0.92219       -0.20070
C          1.98093        1.15862       -0.48915
H          0.03481        1.73364        0.20505
C          2.77069        0.14096       -1.01854
H          2.41044        2.14035       -0.30622
C          0.86678       -1.34783       -0.98367
C          2.21414       -1.11219       -1.26488
H          3.81683        0.32681       -1.24673
H          0.44713       -2.32645       -1.20518
H          2.82712       -1.90450       -1.68635
H          0.57208       -2.31331        3.27253
H         -1.16079       -2.61529        0.52034
H         -1.17802       -1.44805        1.83348
16 17 F
