#m062x/6-311+g(2df,2p) Opt=(ModRedun,Loose,maxcycle=1000) Int(Grid=SG1) freq

 Title

0 2
C         -5.34245       -1.20762        1.65582
C         -3.97845       -0.96894        1.49407
C         -5.86920       -2.46699        1.37942
H         -5.99689       -0.40910        1.99685
C         -3.13111       -1.98566        1.03980
H         -3.58569        0.01859        1.71959
C         -5.02945       -3.48938        0.94497
H         -6.93324       -2.65254        1.50506
C         -3.66726       -3.24864        0.77561
H         -5.43705       -4.47516        0.73443
H         -3.02201       -4.05406        0.43269
C         -1.64156       -1.74682        0.81309
C         -1.34897       -0.46593       -0.00908
C          0.11741       -0.25252       -0.37850
H         -1.70246        0.40514        0.54637
H         -1.93208       -0.50279       -0.93240
O         -0.94693       -1.71109        2.06239
H         -1.24995       -2.59574        0.24890
H         -1.25544       -0.96432        2.60852
O         -0.16125       -2.45435        3.06192
C          0.66580        1.03109       -0.29902
C          1.98933        1.26046       -0.67044
H          0.05864        1.86554        0.04410
C          2.77905        0.20690       -1.12338
H          2.40419        2.26376       -0.61118
C          0.91499       -1.30265       -0.84700
C          2.24116       -1.07459       -1.21007
H          3.81122        0.38567       -1.41470
H          0.51119       -2.30645       -0.94151
H          2.85457       -1.89701       -1.56978
H          0.55834       -2.94241        3.74179
O          1.33485       -3.32319        3.05765
O          2.43569       -3.71696        2.16311
H          2.07739       -3.36091        1.32939

