#m062x/6-311+g(2df,2p) Opt=(ModRedun,Loose,maxcycle=1000) Int(Grid=SG1) freq

 Title

0 2
C         -8.26798       -0.03734       -0.52289
C         -7.26937        0.93815       -0.53656
C         -7.93965       -1.35486       -0.19724
C         -6.62418       -1.69641        0.11039
H         -8.70866       -2.12365       -0.18103
C         -5.95034        0.60152       -0.22873
H         -7.52235        1.96599       -0.78929
C         -5.62583       -0.72195        0.09622
H         -6.38194       -2.72642        0.36185
C         -4.95246        1.57774       -0.24270
C         -3.63694        1.23646        0.06612
H         -5.19514        2.60774       -0.49403
C         -3.31437       -0.08010        0.38928
H         -2.86152        1.99849        0.05472
C         -4.30659       -1.05869        0.40449
H         -4.04603       -2.08376        0.65780
H         -2.28751       -0.34429        0.62978
C         -9.70131        0.34207       -0.85615
H         -9.74564        0.90920       -1.79155
H        -10.12229        0.95659       -0.05646
H        -10.32792       -0.54620       -0.96717
O         -9.99174        1.59104       -2.62267
O        -10.52605        2.60195       -3.54706
H        -11.19753        2.06120       -4.00202

18 19 F
19 22 F