#m062x/6-311+g(2df,2p) Opt=(ModRedun,Loose,maxcycle=1000) Int(Grid=SG1) freq

Title

0 2
C         -0.02986       15.56905        0.97490
C          1.30894       15.26261        0.75790
C          1.67426       13.97221        0.37213
C          0.70500       12.97017        0.19798
C         -1.00482       14.58462        0.80606
C         -0.65917       13.27415        0.41665
H         -2.04763       14.84265        0.98091
H         -0.31917       16.57240        1.27587
H          2.07043       16.02690        0.88876
H          2.72709       13.75337        0.20769
C         -1.61309       12.25147        0.23641
C          1.07009       11.67048       -0.19019
C          0.10597       10.67618       -0.36406
H          2.11577       11.42298       -0.36209
C         -1.23920       10.96365       -0.15169
H          0.40847        9.67685       -0.66758
H         -1.97229       10.17504       -0.29950
O         -2.94193       12.53805        0.44630
H         -3.47270       11.72656        0.35303
O         -4.45764       11.66161        0.31196
O         -4.93394       11.01252       -0.91389
H         -5.32731       11.81017       -1.31910

11 18 F
19 20 F