#n B3LYP/6-31G(d) Opt=(ModRedun)

 Title

0 2
C         -4.64551        0.38415       -0.03394
C         -3.43101        1.07037       -0.12086
C         -4.65703       -1.00335        0.05712
H         -5.58185        0.93574       -0.04223
C         -2.20185        0.38699       -0.10064
H         -3.45913        2.15459       -0.20420
C         -3.45417       -1.70164        0.06191
H         -5.60002       -1.53943        0.11869
C         -2.23821       -1.01415       -0.01796
H         -3.45835       -2.78712        0.12418
H         -1.33065       -1.61022       -0.01670
C         -0.90258        1.19619       -0.22902
C          0.37133        0.41872        0.17714
H         -0.99236        2.14294        0.36209
H         -0.80700        1.46786       -1.29158
C          1.73435        1.06808        0.04529
H          0.41975       -0.48192       -0.44949
H          0.26573        0.08466        1.21777
C          1.94892        2.44561       -0.05996
C          3.24532        2.96893       -0.11190
H          1.12723        3.14949       -0.09290
C          4.34907        2.12345       -0.06919
H          3.38842        4.04489       -0.17793
C          2.86375        0.22918        0.08883
C          4.15847        0.74902        0.02628
H          5.35371        2.53481       -0.10563
H          2.73911       -0.84897        0.17762
H          5.01490        0.08172        0.06077
O         -1.19045        3.10646        0.44069
O         -0.78753        3.64204        1.72813
H         -1.36833        4.42401        1.70437

