#m062x/6-311+g(2df,2p) Opt=(ModRedun,Loose,maxcycle=1000) Int(Grid=SG1) freq

 Title

0 2
C         -3.07298        4.18439        5.89651
C         -2.07745        3.38491        5.34731
C         -3.46230        5.34569        5.24026
H         -3.54487        3.90229        6.83452
C         -2.85968        5.70963        4.03793
H         -4.24111        5.97300        5.66701
C         -1.46968        3.74337        4.14236
H         -1.77705        2.47680        5.86517
C         -1.85110        4.91628        3.46393
H         -3.20550        6.62487        3.57338
C         -0.47725        2.91551        3.62297
C         -1.21459        5.24712        2.24568
C          0.14634        3.23957        2.42643
H         -0.18476        2.00982        4.14940
C         -0.21571        4.39522        1.73847
H          0.91861        2.58313        2.03183
C          0.43104        4.68845        0.53655
C         -1.53510        6.39801        1.50539
C         -0.88504        6.68503        0.30724
H         -2.29303        7.09924        1.83232
C          0.09948        5.83288       -0.18229
H         -1.15063        7.57903       -0.25161
H          1.19857        4.02206        0.14910
C          0.61892        6.04637       -1.13189
H          1.56207        6.60277       -1.24145
H          1.62564        6.46529       -1.28091
H          1.45956        6.73214       -1.31647
O          0.52589        5.87335       -2.21701
O          0.38082        4.86135       -3.25373
H         -0.59162        4.80071       -3.30148

