#m062x/6-311+g(2df,2p) Opt=(TS, ModRedun)

 Title

0 2
C         -8.79056        1.73924        3.11097
C         -9.24660        0.45774        2.79691
C         -7.51528        2.14916        2.71405
H         -9.42719        2.41719        3.66478
C         -8.43290       -0.42197        2.07880
H        -10.23603        0.14674        3.10653
C         -7.14726       -0.02583        1.67120
H         -8.81269       -1.40834        1.83810
C         -6.67881        1.27409        1.99877
H         -7.18285        3.14796        2.97280
C         -5.44169        1.66920        1.62488
C         -6.37409       -0.86328        0.95236
C         -5.03160       -0.43018        0.49872
H         -6.72933       -1.85032        0.66795
C         -4.50864        0.74264        0.91950
H         -4.47390       -1.08226       -0.16918
H         -5.09058        2.67031        1.86575
H         -3.87746        0.41090        1.74181
C         -3.45058        1.34628        0.03115
H         -2.68370        0.59318       -0.25841
H         -3.97375        1.78092       -0.98480
H         -2.93418        2.18235        0.55257
O         -4.42551        2.37701       -1.78621
O         -5.18948        1.53560       -2.45295
H         -6.09241        1.64959       -2.06048

