#m062x/6-311+g(2df,2p) Opt=(ModRedun,Loose,maxcycle=1000) Int(Grid=SG1) freq

 Title

0 2
C         -8.73571        1.77184        3.28878
C         -8.70765        0.64502        2.47134
C         -7.56281        2.48370        3.53142
H         -9.67353        2.10211        3.72844
C         -7.50624        0.22712        1.90389
H         -9.62335        0.09284        2.27419
C         -6.32584        0.93010        2.15295
H         -7.49200       -0.65412        1.26694
C         -6.35628        2.06752        2.96601
H         -7.59538        3.37455        4.15437
C         -5.10314        2.90145        3.17185
C         -5.05481        0.46251        1.53943
C         -3.91187        1.05605        1.86400
H         -5.06350       -0.37587        0.84693
C         -3.76850        2.18795        2.86554
H         -2.98609        0.69351        1.42311
H         -5.08007        3.35237        4.16751
H         -3.38182        1.76603        3.79675
C         -2.75162        3.22928        2.35658
H         -1.78840        2.75469        2.15120
H         -2.59691        4.01874        3.09929
H         -3.10845        3.69130        1.43239
O         -2.13660        4.69210        3.84131
O         -1.00939        4.71795        4.78515
H         -0.33325        5.12480        4.21250

21 23 F
21 19 F


