#m062x/6-311+g(2df,2p) freq Opt=(TS, ModRedun)

 Title

0 2
C         -6.11430        1.07459       -0.21045
C         -5.65669        1.98485       -1.16273
C         -4.29549        2.29261       -1.24078
C         -3.36638        1.69062       -0.36918
C         -5.21123        0.47361        0.66664
C         -3.84768        0.77694        0.59246
H         -7.16866        0.83766       -0.14961
H         -5.56867       -0.22794        1.40957
H         -3.20007        0.29647        1.30096
H         -3.96782        3.00329       -1.98995
H         -6.35706        2.45397       -1.84172
C         -1.92964        2.07331       -0.51228
C         -0.88272        1.52732        0.15351
H         -1.74607        2.86576       -1.22268
C          0.53924        1.98031       -0.02320
H         -1.05889        0.62330        0.93057
C          0.93065        2.98245       -0.94309
C          2.27238        3.36029       -1.05851
H          0.22754        3.48730       -1.58495
C          1.54023        1.38292        0.76920
C          3.24497        2.75364       -0.26492
H          2.55832        4.12722       -1.76704
C          2.87884        1.76639        0.64837
H          1.29598        0.61803        1.49156
H          3.63348        1.29660        1.26606
H          4.28207        3.04933       -0.35713
O         -0.91807       -0.47074        0.87875
O         -1.05487       -0.90054        2.11717
H         -0.13242       -1.09229        2.42247

