#n B3LYP/6-31G(d) Opt=(ModRedun)

 Title

0 2
C         -5.47228       -0.29189        0.35678
C         -4.15787        0.16914        0.47012
C         -5.72181       -1.61757        0.01853
H         -6.30942        0.37663        0.55198
C         -3.06349       -0.68400        0.21531
H         -4.01505        1.20493        0.78050
C         -4.65869       -2.48471       -0.20221
H         -6.74487       -1.98279       -0.05175
C         -3.34293       -2.02390       -0.10851
H         -4.85518       -3.53016       -0.43705
H         -2.56146       -2.76181       -0.28057
C         -1.64296       -0.11896        0.30341
C         -0.54212       -1.16316       -0.01312
C          0.92653       -0.80020        0.05872
H         -0.70860       -1.54989       -1.02967
H         -0.67389       -2.00305        0.68366
O         -1.53677        0.94456       -0.63667
H         -1.46428        0.25911        1.31816
H         -2.27133        0.90208       -1.31350
O         -1.42063        2.24893        0.03317
C          1.44010        0.47575        0.31884
C          2.82101        0.70389        0.30597
H          0.81355        1.32453        0.55833
C          3.70856       -0.34107        0.06992
H          3.21295        1.70179        0.49637
C          1.84243       -1.84595       -0.16599
C          3.21898       -1.62244       -0.15371
H          4.78135       -0.16238        0.07516
H          1.48925       -2.86207       -0.34436
H          3.90826       -2.44793       -0.31532
H         -1.40133        2.86985       -0.73191
O         -1.93330        3.46362       -0.15917
O         -1.87309        4.66623       -0.99303
H         -1.72265        5.31565       -0.27173

