#m062x/6-311+g(2df,2p) Opt=(ModRedun,Loose,maxcycle=1000) Int(Grid=SG1) freq

 Title

0 1
C         -9.62134        1.44451        3.13881
C         -9.82990        0.26960        2.42092
C         -8.32409        1.88749        3.38617
H        -10.47047        2.01482        3.50764
C         -8.74135       -0.46186        1.94987
H        -10.84213       -0.07840        2.23003
C         -7.43807       -0.02181        2.19270
H         -8.91602       -1.38009        1.39364
C         -7.23121        1.15857        2.91551
H         -8.16724        2.80528        3.94799
C         -5.85332        1.63557        3.18648
C         -6.36070       -0.77545        1.72370
C         -5.03853       -0.38762        1.92997
H         -6.55119       -1.70029        1.18378
C         -4.64957        0.90478        2.63328
H         -4.22948       -1.01028        1.55487
H         -5.66717        2.54598        3.75196
H         -3.99258        0.64845        3.46759
C         -3.86883        1.82787        1.67486
H         -2.97557        1.32152        1.30103
H         -4.48538        2.11926        0.81667
H         -3.54996        2.73519        2.19400
O         -5.16372        2.43475        0.00606
O         -6.47223        3.10355        0.06624
H         -7.04486        2.31780        0.14831

