#m062x/6-311+g(2df,2p) Opt=(ModRedun,Loose,maxcycle=1000) Int(Grid=SG1) freq

Title

0 2
C         -3.40655      -11.85720       -0.35771
C         -3.78149      -11.82974       -1.69417
C         -2.90061      -10.70448        0.24833
H         -3.50520      -12.77406        0.21737
C         -2.75611       -9.49272       -0.46509
H         -2.61658      -10.76810        1.29569
C         -3.64972      -10.65022       -2.42476
H         -4.17500      -12.72378       -2.17008
C         -3.14226       -9.48308       -1.82971
H         -3.94732      -10.64825       -3.47124
C         -2.24654       -8.29667        0.11283
C         -3.01482       -8.30732       -2.58284
C         -2.12788       -7.13827       -0.67218
C         -2.51049       -7.14365       -2.00938
H         -3.30748       -8.28954       -3.63035
H         -1.73382       -6.21716       -0.24652
H         -2.41452       -6.24013       -2.60568
C         -1.81517       -8.23912        1.56072
H         -2.65647       -8.52924        2.20300
H         -0.98537       -8.93955        1.71982
H         -1.48562       -7.22974        1.88207
O         -1.07140       -6.57295        2.48283
O         -1.67017       -5.25580        2.33267
H         -2.14311       -5.25184        3.18428

21 22 F
19 21 F



