#m062x/6-311+g(2df,2p) freq Opt=(TS, ModRedun)
 Title

0 2
C         -6.91313       -1.21133        0.09694
C         -5.90401       -2.08947       -0.30497
C         -6.62569        0.14245        0.28603
C         -5.32821        0.62001        0.07635
C         -4.60515       -1.61635       -0.51496
C         -4.30244       -0.25700       -0.32129
H         -7.40883        0.82284        0.59473
H         -7.91814       -1.57913        0.25864
H         -5.12590        1.67297        0.22814
H         -6.12861       -3.13736       -0.45661
H         -3.84148       -2.30986       -0.83657
C         -2.90354        0.26319       -0.55132
C         -1.89210       -0.32035        0.45380
H         -2.90441        1.36943       -0.44933
H         -2.59338        0.02113       -1.59089
C         -0.51064        0.25393        0.22553
H         -1.86667       -1.54975        0.36563
H         -2.21060       -0.05681        1.48849
C         -0.27604        1.63231        0.38961
C          1.00082        2.16317        0.18314
H         -1.07857        2.29737        0.68178
C          0.56057       -0.57899       -0.14373
C          1.83576       -0.04323       -0.34969
C          2.05576        1.32633       -0.18703
H          1.17247        3.22409        0.31167
H          3.04369        1.73871       -0.34644
H          2.65428       -0.69111       -0.63580
H          0.41637       -1.64143       -0.27781
O         -1.89299       -2.47592        0.96150
O         -1.64959       -3.44989        0.10852
H         -0.71903       -3.72806        0.30307

