#m062x/6-311+g(2df,2p) Opt=(ModRedun,Loose,maxcycle=1000) Int(Grid=SG1) freq

 Title

0 2
C         -6.90323       -1.18842        0.08975
C         -5.99449       -2.08871       -0.46243
C         -6.50201        0.11380        0.38040
C         -5.19318        0.51543        0.11902
C         -4.68609       -1.68702       -0.72504
C         -4.27877       -0.38271       -0.43592
H         -7.20994        0.81657        0.81291
H         -7.92368       -1.50239        0.29525
H         -4.88765        1.53279        0.35221
H         -6.30508       -3.10626       -0.68659
H         -3.98201       -2.39865       -1.15072
C         -2.84874        0.05364       -0.71074
C         -1.92739       -0.18348        0.50390
H         -2.83661        1.11448       -0.97316
H         -2.45630       -0.48957       -1.57413
C         -0.52590        0.35849        0.25728
H         -1.88714       -1.25457        0.73997
H         -2.35616        0.31283        1.37869
C         -0.20951        1.67043        0.61824
C          1.06956        2.17416        0.38886
H         -0.96147        2.30754        1.07832
C          0.45028       -0.44213       -0.34157
C          1.73007        0.06110       -0.56830
C          2.04045        1.36918       -0.20290
H          1.30963        3.19635        0.67127
H          3.03851        1.76207       -0.38122
H          2.48655       -0.56712       -1.03235
H          0.21741       -1.46276       -0.63627
O         -1.90729       -2.32473        1.01235
O         -1.67334       -3.67424        0.47732
H         -0.74590       -3.79427        0.75272

