#m062x/6-311+g(2df,2p) Opt=(ModRedun,Loose,maxcycle=1000) Int(Grid=SG1) freq

Title

0 2
C         -5.62715        0.46266       -2.72619
C         -4.58461       -0.03428       -3.50537
C         -5.34801        1.12855       -1.53462
C         -4.02744        1.29788       -1.12249
C         -3.26404        0.13486       -3.09356
C         -2.97863        0.80207       -1.89984
H         -6.16099        1.51793       -0.92657
H         -6.65755        0.33102       -3.04756
H         -3.81812        1.82338       -0.19353
H         -4.80142       -0.55390       -4.43563
H         -2.45660       -0.25121       -3.71172
C         -1.53712        1.01042       -1.46272
C         -1.04050        2.44064       -1.76510
H         -1.44924        0.81459       -0.39119
H         -0.89016        0.28994       -1.96950
C          0.42056        2.61963       -1.37984
H         -1.17928        2.67055       -2.83009
H         -1.65132        3.15653       -1.20792
C          0.76141        3.05401       -0.09673
C          2.09967        3.21261        0.25897
H         -0.01627        3.26994        0.63235
C          1.43251        2.34233       -2.30223
C          2.77053        2.50133       -1.94618
C          3.10472        2.93679       -0.66565
H          2.35963        3.55171        1.25881
H          4.14869        3.06092       -0.38819
H          3.55414        2.28538       -2.66839
H          1.18202        2.00053       -3.30409
O         -1.58105        2.96983       -3.81475
O         -2.92023        3.47820       -4.15107
H         -3.38288        2.62902       -4.28181

