#m062x/6-311+g(2df,2p) Opt=(ModRedun,Loose,maxcycle=1000) Int(Grid=SG1) freq

 Title

0 2
C         -8.53665       -1.55670       -0.21116
C         -7.78085       -2.72252       -0.23567
C         -6.38995       -2.66003       -0.18544
C         -5.72267       -1.42497       -0.11097
C         -7.89786       -0.32441       -0.13806
C         -6.50426       -0.25438       -0.08994
H         -8.49450        0.58488       -0.11998
H         -9.62196       -1.60801       -0.24998
H         -8.27748       -3.68795       -0.29461
H         -5.85525       -3.60167       -0.20898
C         -5.90067        0.99906       -0.02164
C         -4.31438       -1.31560       -0.05875
C         -4.51805        1.10611        0.02303
H         -6.50713        1.90178       -0.00485
C         -3.72587       -0.03942        0.00450
H         -4.06035        2.09145        0.07412
C         -2.33883        0.10641        0.05277
C         -3.46093       -2.43175       -0.06479
C         -1.50753       -1.01045        0.04778
H         -1.89903        1.10056        0.10075
C         -2.07730       -2.27950       -0.01025
H         -3.84126       -3.44503       -0.10687
H         -1.44374       -3.16351       -0.01071
C          0.00148       -0.83520        0.12054
H          0.28798       -0.30138        1.03366
H          0.35721       -0.26339       -0.73985
H          0.51163       -1.80135        0.11848
O          0.40109        0.34803        1.91847
O         -0.38289        0.34886        3.16315
H         -1.09312        0.96441        2.90315

