#m062x/6-311+g(2df,2p) Opt=(ModRedun,Loose,maxcycle=1000) Int(Grid=SG1) freq

 Title

0 2
C         -5.50559        1.11957        1.24715
C         -4.17259        0.74600        1.08947
C         -6.50499        0.15064        1.24737
H         -5.76541        2.16836        1.36873
C         -3.82091       -0.59743        0.93008
H         -3.40172        1.51354        1.08825
C         -6.16795       -1.19087        1.08887
H         -7.54572        0.44074        1.36971
C         -4.83462       -1.56527        0.93018
H         -6.94762       -1.94879        1.08774
H         -4.60706       -2.62003        0.80727
C         -2.33940       -0.93895        0.75563
C         -1.98536       -2.44426        0.76236
H         -1.97733       -0.49212       -0.17930
H         -1.78736       -0.45858        1.56847
C         -0.49028       -2.67865        0.60935
H         -2.51381       -2.94544       -0.05218
H         -2.32524       -2.89647        1.69733
C          0.37467       -2.42360        1.67605
C          1.74619       -2.62607        1.53288
H         -0.01793       -2.06117        2.62321
C          2.26059       -3.08874        0.32361
H          2.41541       -2.42207        2.36506
C          0.03150       -3.14007       -0.60167
C          1.40248       -3.34638       -0.74317
H          3.33040       -3.24716        0.21176
H         -0.62825       -3.33805       -1.44330
H          1.80266       -3.70603       -1.68798
O         -1.43443        0.14132       -0.90288
O         -0.06261        0.53256       -1.26027
H          0.02435        1.32907       -0.70513

