#m062x/6-311+g(2df,2p) Opt=(ModRedun,Loose,maxcycle=1000) Int(Grid=SG1) freq

 Title

0 2
C        -24.18434       18.53549        1.90363
C        -23.87067       17.69896        0.83744
C        -23.59754       18.34160        3.16484
H        -24.89431       19.34377        1.73975
C        -22.96261       16.65901        1.01420
H        -24.33356       17.85776       -0.13296
C        -22.35047       16.44267        2.25682
H        -22.73203       16.01656        0.16722
C        -22.65930       17.28829        3.35271
C        -22.00799       17.03253        4.58104
C        -21.09524       15.98447        4.72405
H        -22.20272       17.65389        5.45145
C        -21.43141       15.39209        2.41667
C        -20.80801       15.16353        3.64202
H        -21.19197       14.73981        1.57949
H        -20.61078       15.81365        5.68174
H        -20.09897       14.34709        3.74827
C        -23.97152       19.27611        4.29288
H        -24.77604       19.99643        4.03597
H        -23.08952       19.85658        4.58974
H        -24.31955       18.69210        5.15435
O        -25.58176       20.55819        4.02934
O        -25.29818       21.91578        4.46877
H        -25.82962       21.87961        5.28443

19 22 F
18 19 F
