#m062x/6-31+g(d,p) Opt=(TS,Loose,maxcycle=1000,CalcFC) Int(Grid=SG1) freq

Title

0 2
C          0.92470        1.99701       -0.28535
C         -0.19080        2.68223        0.22137
C          0.87566        0.64914       -0.59959
H          1.84905        2.53645       -0.45154
C         -1.36981        2.01884        0.42127
H         -0.11363        3.73742        0.44340
C         -1.47384        0.63479        0.13778
H         -2.24041        2.53715        0.80078
C         -0.34710       -0.07096       -0.36185
C         -0.47982       -1.46020       -0.60175
C         -1.66667       -2.10409       -0.38247
H          0.37309       -2.02866       -0.93927
C         -2.68985       -0.05958        0.35229
C         -2.78919       -1.39653        0.09537
H         -3.54167        0.49456        0.72450
H         -1.74253       -3.16624       -0.57001
H         -3.72376       -1.91521        0.25951
C          2.07277        0.00044       -1.10212
H          2.63817       -0.38600       -0.22856
H          2.82356        0.67346       -1.50612
H          1.95570       -0.90025       -1.69255
O          3.14067       -0.73161        0.54141
O          2.20028       -1.52107        1.20340
H          1.79855       -0.90785        1.83154

