# m062x/6-31G(d,p) Opt=(TS,Loose,maxcycle=1000,CalcFC,NoEigenTest) Int(Grid=SG1) freq

 Title

0 2
C          1.61537        1.38482       -0.65304
C          0.93465        2.36533        0.07165
C          1.01356        0.15430       -1.00470
H          2.64170        1.55816       -0.96144
C         -0.36959        2.15945        0.46811
H          1.43802        3.29312        0.32034
C         -1.03941        0.94072        0.15343
H         -0.90649        2.91587        1.03097
C         -0.36263       -0.07711       -0.57404
C         -1.05181       -1.28208       -0.83824
C         -2.34963       -1.46809       -0.41940
H         -0.55241       -2.08167       -1.37219
C         -2.37701        0.72474        0.57202
C         -3.02326       -0.45336        0.29051
H         -2.88069        1.51157        1.12544
H         -2.85330       -2.40553       -0.62897
H         -4.04469       -0.60707        0.62015
C          1.75402       -0.78466       -1.72386
H          2.36413       -1.15414       -0.45920
H          2.75616       -0.53854       -2.05705
H          1.35780       -1.74392       -2.02512
O          2.61350       -1.14643        1.39936
O          1.27273       -1.59600        1.57356
H          0.79823       -0.75699        1.67752

