# m062x/6-31G(d,p) Opt=(TS,Loose,maxcycle=1000,CalcFC,NoEigenTest) Int(Grid=SG1) freq

 Title

0 2
C          1.67466        0.61943       -1.16578
C          1.20241        1.88348       -0.82295
C          0.88369       -0.54229       -1.01827
H          2.68013        0.50961       -1.54882
C         -0.07283        2.03856       -0.32769
H          1.84382        2.74475       -0.94946
C         -0.92775        0.91488       -0.16302
H         -0.44709        3.01817       -0.06114
C         -0.46958       -0.38199       -0.50304
C         -1.34407       -1.46830       -0.31623
C         -2.61016       -1.28453        0.18046
H         -1.01962       -2.46884       -0.56158
C         -2.23602        1.07866        0.34468
C         -3.06376        0.00263        0.51520
H         -2.57161        2.07603        0.59928
H         -3.26266       -2.13539        0.31771
H         -4.06131        0.13684        0.90814
C          1.43166       -1.77577       -1.34561
H          2.21922       -1.45843        0.63851
H          2.43643       -1.82471       -1.73990
H          0.89019       -2.70341       -1.26435
O          2.65840       -0.65748        1.68395
O          1.45557       -0.01036        2.03739
H          1.51096        0.87112        1.47972

