# m062x/6-31G(d,p) Opt=(TS,Loose,maxcycle=1000,CalcFC,NoEigenTest) Int(Grid=SG1) freq

 Title

0 2
C          2.30378       -1.74195       -0.19928
C          3.07695       -0.74115        0.41018
C          2.56250        0.52909        0.58401
C          1.25381        0.83469        0.15260
C          1.01585       -1.46196       -0.62888
C          0.48293       -0.18189       -0.45747
H          0.39596       -2.21063       -1.10917
H          2.71759       -2.73521       -0.33218
H          4.08331       -0.96518        0.74716
H          3.15795        1.30344        1.05775
C         -0.89461        0.10658       -0.90456
C          0.69084        2.13841        0.31759
C         -0.60376        2.42761       -0.11297
H          1.29272        2.90593        0.79296
C         -1.38607        1.45598       -0.70633
H         -1.00151        3.42609        0.02812
H         -2.40010        1.65397       -1.03404
O         -1.60087       -0.77369       -1.42247
H         -2.65291       -0.84075       -0.40201
O         -3.16612       -1.24707        0.83981
O         -2.08291       -0.60702        1.50475
H         -1.58290       -1.36707        1.83457

