# m062x/6-31G(d,p) Opt=(TS,Loose,maxcycle=1000,CalcFC,NoEigenTest) Int(Grid=SG1) freq

 Title

0 2
C          2.85070       -1.68178        0.07621
C          3.62619       -0.51673        0.09751
C          3.02020        0.71857        0.06023
C          1.61845        0.82247       -0.00025
C          1.47307       -1.60080        0.01700
C          0.84530       -0.35686       -0.02123
H          0.85938       -2.48953       -0.00107
H          3.33300       -2.64854        0.10230
H          4.70427       -0.58783        0.14015
H          3.61255        1.62322        0.07475
C         -0.62386       -0.26459       -0.08821
C          0.96701        2.08907       -0.04158
C         -0.41800        2.18671       -0.10048
H          1.57279        2.98471       -0.02427
C         -1.20778        1.05858       -0.12319
H         -0.88050        3.16337       -0.12388
H         -2.28744        1.11989       -0.15198
O         -1.32552       -1.28371       -0.11527
H         -3.07819       -1.05844       -0.42953
O         -4.00504       -0.76504       -0.53240
O         -4.17942        0.01737        0.64038
H         -4.66362       -0.58355        1.21569

