# m062x/6-31G(d,p) Opt=(TS,Loose,maxcycle=1000,CalcFC,NoEigenTest) Int(Grid=SG1) freq

 Titlecd 

0 2
C          1.42110        1.22672        0.43541
C          0.74559        0.04564        0.78342
C          0.67624        2.24473       -0.26545
C         -0.63425        2.06872       -0.57854
H          1.18867        3.16260       -0.53680
C         -0.61262       -0.15915        0.45728
H          1.28549       -0.73072        1.31932
C         -1.32504        0.86372       -0.23274
H         -1.18323        2.84314       -1.10589
C         -1.29328       -1.36029        0.79300
C         -2.61426       -1.53327        0.46420
H         -0.74645       -2.13823        1.31797
C         -3.31874       -0.51409       -0.21680
H         -3.12242       -2.45562        0.72392
C         -2.68382        0.65834       -0.55726
H         -3.22074        1.44113       -1.08486
H         -4.36203       -0.66046       -0.47505
C          2.78019        1.41439        0.74294
H          2.90806        0.24839       -0.44911
H          3.34263        0.65636        1.27393
H          3.28853        2.33171        0.47406
O          3.05987       -1.48365       -0.62987
O          1.96289       -2.36246       -0.88165
H          1.87005       -2.79252       -0.02038

