# m062x/6-31+g(d,p) Opt=(TS,Loose,maxcycle=1000,CalcFC,NoEigenTest) Int(Grid=SG1) freq

 Title

0 2
C          1.26636        0.42428        0.70388
C          0.36380       -0.61738        0.76705
C          0.82353        1.68040        0.19375
C         -0.46344        1.86063       -0.20719
H          1.53352        2.49467        0.12833
C         -0.97900       -0.45816        0.36123
H          0.68489       -1.58249        1.14156
C         -1.40570        0.80046       -0.13566
H         -0.78953        2.81883       -0.59178
C         -1.91612       -1.51867        0.43446
C         -3.20909       -1.33695        0.03197
H         -1.58714       -2.47676        0.81676
C         -3.63118       -0.08427       -0.46534
H         -3.91484       -2.15363        0.09210
C         -2.74890        0.95833       -0.54507
H         -3.06717        1.91949       -0.92879
H         -4.65484        0.04477       -0.78765
C          2.65815        0.24161        1.07192
H          3.21352        0.02774        0.13645
H          2.88105       -0.62993        1.68010
H          3.19380        1.13442        1.38227
O          3.73012       -0.16317       -0.67557
O          3.06111       -1.24974       -1.24036
H          3.62642       -1.99546       -1.00792

