#m062x/cc-pVTZ Opt=(calcfc,verytight,gdiis,maxcycles=900) freq IOP(2/16=3) scf=(maxcycle=900)

 Title

0 1
C         -5.94477       -1.13905       -0.00000
C         -5.22751       -0.05806       -0.00000
H         -6.53172       -2.02831        0.00000
H         -5.68725        0.92324       -0.00000
C         -3.81709       -0.18231       -0.00000
C         -2.52303       -0.28662       -0.00000
H         -1.89757        0.59824       -0.00000
H         -2.04840       -1.26087       -0.00000

