#m062x/cc-pVTZ Opt=(calcfc,verytight,gdiis,maxcycles=900) freq IOP(2/16=3) scf=(maxcycle=900) 

 Title

0 1
C         -3.17414       -1.66005        0.59054
C         -2.14552       -0.33505        0.00018
C         -0.94060        0.01535        1.56271
H         -0.32665        0.87330        2.27514
H         -0.26954        0.46715        0.55195
H         -0.08806       -0.80721        1.76873
H         -4.22906       -1.81137        0.59091

