#m062x/6-311+g(2df,2p) Opt=(ModRedun,Loose,maxcycle=1000) Int(Grid=SG1) freq

Title

0 2
C          2.68857       -1.84857       -0.07369
C          3.47778       -0.65114       -0.27381
C          1.37032       -1.76838        0.17256
H          3.17802       -2.81140       -0.11417
C          2.90802        0.56463       -0.22356
H          4.53917       -0.74654       -0.45761
C          1.48580        0.72448        0.01090
H          3.49850        1.46134       -0.36415
C          0.68606       -0.49018        0.22217
H          0.77778       -2.66121        0.32712
C         -0.61574       -0.39956        0.58365
C          0.92557        1.94747        0.16637
C         -0.50943        2.14525        0.31236
H          1.56134        2.82257        0.21283
C         -1.35631        0.85553        0.54863
H         -0.83036        3.04196        0.82182
H         -1.14416       -1.27813        0.93076
H         -2.21052        0.92926        1.20637
C         -1.44775        1.63876       -0.74051
H         -2.34412        2.22076       -0.89585
H         -2.75400       -0.17391       -0.86826
H         -1.00319        1.20478       -1.62644
O         -3.39112       -1.07154       -0.93026
O         -3.65285       -1.32700        0.44218
H         -4.59403       -1.13091        0.50173

